src/test/resources/com/rte_france/trm_algorithm/TestCaseIn/NETWORK_TEST_IN_MARKET.uct
##C 2007.05.01
Test network for modelling all IN TRM implementation specificities
##N
##ZAT
0GENE111 AT GENE 1    0 2 400.00 0.00000 0.00000 -700.00 0.00000 2000.00 -2000.0 2000.00 -2000.0
0LOAD111 AT LOAD 1    0 0        100.000 0.00000 0.00000 0.00000
0LOAD211 AT LOAD 2    0 0        200.000 0.00000 0.00000 0.00000
0OTHR111 AT OTHER 1   0 0        0.00000 0.00000 0.00000 0.00000
##ZCH
SGENE111 CH GENE 1    0 0 400.00 0.00000 0.00000 -250.00 0.00000 2000.00 -2000.0 2000.00 -2000.0
SGENE211 CH GENE 2    0 0 400.00 0.00000 0.00000 -250.00 0.00000 2000.00 -2000.0 2000.00 -2000.0
SLOAD111 CH LOAD 1    0 0        150.000 0.00000 0.00000 0.00000
SOTHR111 CH OTHER 1   0 0        0.00000 0.00000 0.00000 0.00000
##ZDE
DGENE111 DE GENE 1    0 0 400.00 0.00000 0.00000 -1000.0 0.00000 2000.00 -2000.0 2000.00 -2000.0
DLOAD111 DE LOAD 1    0 0        500.000 0.00000 0.00000 0.00000
##ZFR
FGENE111 FR GENE 1    0 0 400.00 0.00000 0.00000 -1000.0 0.00000 2000.00 -2000.0 2000.00 -2000.0
FGENE211 FR GENE 2    0 0 400.00 0.00000 0.00000 -500.00 0.00000 2000.00 -2000.0 2000.00 -2000.0
FGENE311 FR GENE 3    0 0 400.00 0.00000 0.00000 -100.00 0.00000 2000.00 -2000.0 2000.00 -2000.0
FLOAD111 FR LOAD 1    0 0        250.000 0.00000 0.00000 0.00000
FLOAD211 FR LOAD 2    0 0        750.000 0.00000 0.00000 0.00000
FOTHR111 FR OTHER 1   0 0        0.00000 0.00000 0.00000 0.00000
FHVDC111 HVDC 1 FR    0 0 400.00 0.00000 0.00000   200.0 0.00000 2000.00 -2000.0 2000.00 -2000.0
FHVDC112 HVDC 1 IT    0 0 400.00 0.00000 0.00000  -200.0 0.00000 2000.00 -2000.0 2000.00 -2000.0
FHVDC211 HVDC 2 FR    0 0 400.00 0.00000 0.00000   200.0 0.00000 2000.00 -2000.0 2000.00 -2000.0
FHVDC212 HVDC 2 IT    0 0 400.00 0.00000 0.00000  -200.0 0.00000 2000.00 -2000.0 2000.00 -2000.0
##ZIT
IGENE111 IT GENE 1    0 0 400.00 0.00000 0.00000 -500.00 0.00000 2000.00 -2000.0 2000.00 -2000.0
IGENE211 IT GENE 2    0 0 400.00 0.00000 0.00000 -750.00 0.00000 2000.00 -2000.0 2000.00 -2000.0
IGENE311 IT GENE 3    0 0 400.00 0.00000 0.00000 -750.00 0.00000 2000.00 -2000.0 2000.00 -2000.0
ILOAD111 IT LOAD 1    0 0        500.000 0.00000 0.00000 0.00000
ILOAD211 IT LOAD 2    0 0        800.000 0.00000 0.00000 0.00000
ILOAD311 IT LOAD 3    0 0        750.000 0.00000 0.00000 0.00000
ILOAD411 IT LOAD 4    0 0        1000.00 0.00000 0.00000 0.00000
ILOAD511 IT LOAD 5    0 0        600.000 0.00000 0.00000 0.00000
ILOAD611 IT LOAD 6    0 0        300.000 0.00000 0.00000 0.00000
IOTHR111 IT OTHER 1   0 0        0.00000 0.00000 0.00000 0.00000
IOTHR211 IT OTHER 2   0 0        0.00000 0.00000 0.00000 0.00000
##ZSI
LGENE111 SI GENE 1    0 0 400.00 0.00000 0.00000 -200.00 0.00000 2000.00 -2000.0 2000.00 -2000.0
LLOAD111 SI LOAD 1    0 0        100.000 0.00000 0.00000 0.00000
LOTHR111 SI OTHER 1   0 0        0.00000 0.00000 0.00000 0.00000
##ZXX
XATCH111 X AT-CH 1    0 0        0.00000 0.00000 0.00000 0.00000
XATDE111 X AT-DE 1    0 0        0.00000 0.00000 0.00000 0.00000
XATIT111 X AT-IT 1    0 0        0.00000 0.00000 0.00000 0.00000
XATIT211 X AT-IT 2    0 0        0.00000 0.00000 0.00000 0.00000
XATSI111 X AT-SI 1    0 0        0.00000 0.00000 0.00000 0.00000
XCHDE111 X CH-DE 1    0 0        0.00000 0.00000 0.00000 0.00000
XCHFR111 X CH-FR 1    0 0        0.00000 0.00000 0.00000 0.00000
XCHIT111 X CH-IT 1    0 0        0.00000 0.00000 0.00000 0.00000
XCHIT211 X CH-IT 2    0 0        0.00000 0.00000 0.00000 0.00000
XDEFR111 X DE-FR 1    0 0        0.00000 0.00000 0.00000 0.00000
XFRIT111 X FR-IT 1    0 0        0.00000 0.00000 0.00000 0.00000
XFRIT211 X FR-IT 2    0 0        0.00000 0.00000 0.00000 0.00000
XFRIT311 X FR-IT 3    0 0        0.00000 0.00000 0.00000 0.00000
XFRIT411 X FR-IT 3    0 0        0.00000 0.00000 0.00000 0.00000
XITSI111 X SI-IT 1    0 0        0.00000 0.00000 0.00000 0.00000
##L
0GENE111 0LOAD211 1 0 1.0000 0.0500 0.000000   2000 LINE
0GENE111 0OTHR111 1 0 1.0000 0.0500 0.000000   2000 LINE
0GENE111 XATDE111 1 0 1.0000 0.0500 0.000000   2000 LINE
0GENE111 XATSI111 1 0 1.0000 0.0500 0.000000   2000 LINE
0LOAD111 0OTHR111 1 0 1.0000 0.0500 0.000000   2000 LINE
0LOAD111 XATIT111 1 0 1.0000 0.0500 0.000000   2000 LINE
0LOAD211 XATIT211 1 0 1.0000 0.0500 0.000000   2000 LINE
0OTHR111 XATCH111 1 0 1.0000 0.0500 0.000000   2000 LINE
SGENE111 SLOAD111 1 0 1.0000 0.0500 0.000000   2000 LINE
SGENE111 SOTHR111 1 0 1.0000 0.0500 0.000000   2000 LINE
SGENE111 XCHFR111 1 0 1.0000 0.0500 0.000000   2000 LINE
SGENE211 XCHIT211 1 0 1.0000 0.0500 0.000000   2000 LINE
SLOAD111 SOTHR111 1 0 1.0000 0.0500 0.000000   2000 LINE
SLOAD111 XCHIT111 1 0 1.0000 0.0500 0.000000   2000 LINE
SOTHR111 XATCH111 1 0 1.0000 0.0500 0.000000   2000 LINE
SOTHR111 XCHDE111 1 0 1.0000 0.0500 0.000000   2000 LINE
DGENE111 DLOAD111 1 0 1.0000 0.0500 0.000000   2000 LINE
DGENE111 XATDE111 1 0 1.0000 0.0500 0.000000   2000 LINE
DGENE111 XCHDE111 1 0 1.0000 0.0500 0.000000   2000 LINE
DLOAD111 XDEFR111 1 0 1.0000 0.0500 0.000000   2000 LINE
FGENE111 FGENE211 1 0 1.0000 0.0500 0.000000   2000 LINE
FGENE111 FLOAD111 1 0 1.0000 0.0500 0.000000   2000 LINE
FGENE111 XDEFR111 1 0 1.0000 0.0500 0.000000   2000 LINE
FGENE211 FLOAD211 1 0 1.0000 0.0500 0.000000   2000 LINE
FGENE311 FLOAD111 1 0 1.0000 0.0500 0.000000   2000 LINE
FGENE311 FOTHR111 1 0 1.0000 0.0500 0.000000   2000 LINE
FGENE311 XFRIT211 1 0 1.0000 0.0500 0.000000   2000 LINE
FLOAD111 FOTHR111 1 0 1.0000 0.0500 0.000000   2000 LINE
FLOAD111 XCHFR111 1 0 1.0000 0.0500 0.000000   2000 LINE
FLOAD211 XFRIT111 1 0 1.0000 0.0500 0.000000   2000 LINE
IGENE111 ILOAD111 1 0 1.0000 0.0500 0.000000   2000 LINE
IGENE111 ILOAD311 1 0 1.0000 0.0500 0.000000   2000 LINE
IGENE211 ILOAD211 1 0 1.0000 0.0500 0.000000   2000 LINE
IGENE211 ILOAD311 1 0 1.0000 0.0500 0.000000   2000 LINE
IGENE211 ILOAD411 1 0 1.0000 0.0500 0.000000   2000 LINE
IGENE211 XCHIT111 1 0 1.0000 0.0500 0.000000   2000 LINE
IGENE311 ILOAD511 1 0 1.0000 0.0500 0.000000   2000 LINE
IGENE311 ILOAD611 1 0 1.0000 0.0500 0.000000   2000 LINE
IGENE311 IOTHR211 1 0 1.0000 0.0500 0.000000   2000 LINE
ILOAD111 XFRIT111 1 0 1.0000 0.0500 0.000000   2000 LINE
ILOAD211 ILOAD311 1 0 1.0000 0.0500 0.000000   2000 LINE
ILOAD211 IOTHR111 1 0 1.0000 0.0500 0.000000   2000 LINE
ILOAD211 XFRIT211 1 0 1.0000 0.0500 0.000000   2000 LINE
ILOAD311 ILOAD411 1 0 1.0000 0.0500 0.000000   2000 LINE
ILOAD411 ILOAD511 1 0 1.0000 0.0500 0.000000   2000 LINE
ILOAD411 IOTHR211 1 0 1.0000 0.0500 0.000000   2000 LINE
ILOAD411 XCHIT211 1 0 1.0000 0.0500 0.000000   2000 LINE
ILOAD611 IOTHR211 1 0 1.0000 0.0500 0.000000   2000 LINE
ILOAD611 XITSI111 1 0 1.0000 0.0500 0.000000   2000 LINE
IOTHR111 XFRIT311 1 0 1.0000 0.0500 0.000000   2000 LINE
IOTHR111 XFRIT411 1 0 1.0000 0.0500 0.000000   2000 LINE
IOTHR211 XATIT111 1 0 1.0000 0.0500 0.000000   2000 LINE
IOTHR211 XATIT211 1 0 1.0000 0.0500 0.000000   2000 LINE
LGENE111 LLOAD111 1 0 1.0000 0.0500 0.000000   2000 LINE
LGENE111 LOTHR111 1 0 1.0000 0.0500 0.000000   2000 LINE
LLOAD111 LOTHR111 1 0 1.0000 0.0500 0.000000   2000 LINE
LLOAD111 XITSI111 1 0 1.0000 0.0500 0.000000   2000 LINE
LOTHR111 XATSI111 1 0 1.0000 0.0500 0.000000   2000 LINE
FHVDC111 FOTHR111 1 0 1.0000 0.0500 0.000000   2000 LINE
FHVDC111 FHVDC112 1 8 1.0000 0.0500 0.000000   2000 LINE
FHVDC111 FHVDC112 2 8 1.0000 0.0500 0.000000   2000 LINE
FHVDC111 FHVDC112 3 8 1.0000 0.0500 0.000000   2000 LINE
FHVDC211 FOTHR111 1 0 1.0000 0.0500 0.000000   2000 LINE
FHVDC211 FHVDC212 1 8 1.0000 0.0500 0.000000   2000 LINE
FHVDC211 FHVDC212 2 8 1.0000 0.0500 0.000000   2000 LINE
FHVDC211 FHVDC212 3 8 1.0000 0.0500 0.000000   2000 LINE
FHVDC112 XFRIT311 1 0 1.0000 0.0500 0.000000   2000 LINE
FHVDC212 XFRIT411 1 0 1.0000 0.0500 0.000000   2000 LINE
##T
SGENE211 SOTHR111 1 0 400.0 400.0 1000. 0.5000 1.5000 150.0000 200.00   2000 PST
##R
SGENE211 SOTHR111 1                    0.680 90.00 99   1 500.0 SYMM